data_CELLMUNCHER


_pd_phase_name                         'Super Cell'
_cell_length_a                         4.007 
_cell_length_b                         5.66675374442899 
_cell_length_c                         5.66675374442899 
_cell_angle_alpha                      90.0 
_cell_angle_beta                       90.0 
_cell_angle_gamma                      90.0 
_symmetry_space_group_name_H-M         'P 1'
_symmetry_Int_Tables_number            1

loop_
_symmetry_equiv_pos_as_xyz
   'x, y, z'


loop_
   _atom_site_label
   _atom_site_occupancy
   _atom_site_fract_x
   _atom_site_fract_y
   _atom_site_fract_z
   _atom_site_thermal_displace_type
   _atom_site_B_iso_or_equiv
   _atom_site_type_symbol
 ti   1.0000  0.0000  0.0000  0.0000   Biso    0.0000 ti
 o   1.0000  0.2500  0.2500  0.0000   Biso    0.0000 o
 o   1.0000  0.0000  0.0000  0.5000   Biso    0.0000 o
 Ba   1.0000  0.0000  0.5000  0.5000   Biso    0.0000 Ba
 Ba   1.0000  0.5000  0.0000  0.5000   Biso    0.0000 Ba
 ti   1.0000  0.5000  0.5000  0.0000   Biso    0.0000 ti
 o   1.0000  0.2500  0.7500  0.0000   Biso    0.0000 o
 o   1.0000  0.7500  0.7500  0.0000   Biso    0.0000 o
 o   1.0000  0.5000  0.5000  0.5000   Biso    0.0000 o
 o   1.0000  0.7500  0.2500  0.0000   Biso    0.0000 o

