
#======================================================================
# CRYSTAL DATA
#----------------------------------------------------------------------
data_VESTA_phase_1

_chemical_name_common                  'C10 H10 Cu4 O4 S2'
_cell_length_a                         3.9826(2)
_cell_length_b                         23.5568(13)
_cell_length_c                         7.5523(5)
_cell_angle_alpha                      90.000000
_cell_angle_beta                       98.696(5)
_cell_angle_gamma                      90.000000
_cell_volume                           700.391482
_space_group_name_H-M_alt              'P 1'
_space_group_IT_number                 1

loop_
_space_group_symop_operation_xyz
   'x, y, z'

loop_
   _atom_site_label
   _atom_site_occupancy
   _atom_site_fract_x
   _atom_site_fract_y
   _atom_site_fract_z
   _atom_site_adp_type
   _atom_site_U_iso_or_equiv
   _atom_site_type_symbol
   Cu01        1.0     0.4756(4)    0.73581(4)   0.45191(16) Uani  0.033905 Cu
   Cu01        1.0     0.5244(4)    0.26419(4)   0.54809(16) Uani  0.033905 Cu
   Cu01        1.0     0.5244(4)    0.23581(4)   0.04809(16) Uani  0.033905 Cu
   Cu01        1.0     0.4756(4)    0.76419(4)   0.95191(16) Uani  0.033905 Cu
   Cu02        1.0     0.0753(4)    0.71443(4)   0.68338(16) Uani  0.034420 Cu
   Cu02        1.0     0.9247(4)    0.28557(4)   0.31662(16) Uani  0.034420 Cu
   Cu02        1.0     0.9247(4)    0.21443(4)   0.81662(16) Uani  0.034420 Cu
   Cu02        1.0     0.0753(4)    0.78557(4)   0.18338(16) Uani  0.034420 Cu
   S003        1.0     0.9703(5)    0.77895(8)   0.4661(4)   Uani  0.030695 S
   S003        1.0     0.0297(5)    0.22105(8)   0.5339(4)   Uani  0.030695 S
   S003        1.0     0.0297(5)    0.27895(8)   0.0339(4)   Uani  0.030695 S
   S003        1.0     0.9703(5)    0.72105(8)   0.9661(4)   Uani  0.030695 S
   O004        1.0     0.4864(16)   0.6525(4)    0.4195(9)   Uani  0.038512 O
   O004        1.0     0.5136(16)   0.3475(4)    0.5805(9)   Uani  0.038512 O
   O004        1.0     0.5136(16)   0.1525(4)    0.0805(9)   Uani  0.038512 O
   O004        1.0     0.4864(16)   0.8475(4)    0.9195(9)   Uani  0.038512 O
   O005        1.0     0.2462(16)   0.6362(2)    0.6654(9)   Uani  0.038614 O
   O005        1.0     0.7538(16)   0.3638(2)    0.3346(9)   Uani  0.038614 O
   O005        1.0     0.7538(16)   0.1362(2)    0.8346(9)   Uani  0.038614 O
   O005        1.0     0.2462(16)   0.8638(2)    0.1654(9)   Uani  0.038614 O
   C006        1.0     0.963(2)     0.8517(4)    0.5468(13)  Uani  0.037559 C
   C006        1.0     0.037(2)     0.1483(4)    0.4532(13)  Uani  0.037559 C
   C006        1.0     0.037(2)     0.3517(4)    0.9532(13)  Uani  0.037559 C
   C006        1.0     0.963(2)     0.6483(4)    0.0468(13)  Uani  0.037559 C
   H010        1.0     0.806500     0.873700     0.465200    Uani  0.056000 H
   H010        1.0     0.193500     0.126300     0.534800    Uani  0.056000 H
   H010        1.0     0.193500     0.373700     0.034800    Uani  0.056000 H
   H010        1.0     0.806500     0.626300     0.965200    Uani  0.056000 H
   H011        1.0     0.186500     0.867800     0.554800    Uani  0.056000 H
   H011        1.0     0.813500     0.132200     0.445200    Uani  0.056000 H
   H011        1.0     0.813500     0.367800     0.945200    Uani  0.056000 H
   H011        1.0     0.186500     0.632200     0.054800    Uani  0.056000 H
   H012        1.0     0.893700     0.852000     0.663100    Uani  0.056000 H
   H012        1.0     0.106300     0.148000     0.336900    Uani  0.056000 H
   H012        1.0     0.106300     0.352000     0.836900    Uani  0.056000 H
   H012        1.0     0.893700     0.648000     0.163100    Uani  0.056000 H
   C007        1.0     0.389(2)     0.6204(4)    0.5359(13)  Uani  0.036242 C
   C007        1.0     0.611(2)     0.3796(4)    0.4641(13)  Uani  0.036242 C
   C007        1.0     0.611(2)     0.1204(4)    0.9641(13)  Uani  0.036242 C
   C007        1.0     0.389(2)     0.8796(4)    0.0359(13)  Uani  0.036242 C
   C008        1.0     0.450(2)     0.5579(4)    0.5171(14)  Uani  0.034735 C
   C008        1.0     0.550(2)     0.4421(4)    0.4829(14)  Uani  0.034735 C
   C008        1.0     0.550(2)     0.0579(4)    0.9829(14)  Uani  0.034735 C
   C008        1.0     0.450(2)     0.9421(4)    0.0171(14)  Uani  0.034735 C
   C009        1.0     0.376(2)     0.5218(4)    0.6467(14)  Uani  0.039195 C
   C009        1.0     0.624(2)     0.4782(4)    0.3533(14)  Uani  0.039195 C
   C009        1.0     0.624(2)     0.0218(4)    0.8533(14)  Uani  0.039195 C
   C009        1.0     0.376(2)     0.9782(4)    0.1467(14)  Uani  0.039195 C
   H009        1.0     0.291000     0.536100     0.745800    Uani  0.047000 H
   H009        1.0     0.709000     0.463900     0.254200    Uani  0.047000 H
   H009        1.0     0.709000     0.036100     0.754200    Uani  0.047000 H
   H009        1.0     0.291000     0.963900     0.245800    Uani  0.047000 H
   C010        1.0     0.574(2)     0.5367(4)    0.3681(13)  Uani  0.037036 C
   C010        1.0     0.426(2)     0.4633(4)    0.6319(13)  Uani  0.037036 C
   C010        1.0     0.426(2)     0.0367(4)    0.1319(13)  Uani  0.037036 C
   C010        1.0     0.574(2)     0.9633(4)    0.8681(13)  Uani  0.037036 C
   H013        1.0     0.623200     0.561200     0.278900    Uani  0.044000 H
   H013        1.0     0.376800     0.438800     0.721100    Uani  0.044000 H
   H013        1.0     0.376800     0.061200     0.221100    Uani  0.044000 H
   H013        1.0     0.623200     0.938800     0.778900    Uani  0.044000 H

loop_
   _atom_site_aniso_label
   _atom_site_aniso_U_11
   _atom_site_aniso_U_22
   _atom_site_aniso_U_33
   _atom_site_aniso_U_12
   _atom_site_aniso_U_13
   _atom_site_aniso_U_23
   Cu01	 0.02600  0.02700  0.05000 -0.00050  0.00990  0.00100
   Cu01	 0.02600  0.02700  0.05000 -0.00050  0.00990  0.00100
   Cu01	 0.02600  0.02700  0.05000  0.00050  0.00990 -0.00100
   Cu01	 0.02600  0.02700  0.05000  0.00050  0.00990 -0.00100
   Cu02	 0.03140  0.02640  0.04700  0.00000  0.01090  0.00010
   Cu02	 0.03140  0.02640  0.04700  0.00000  0.01090  0.00010
   Cu02	 0.03140  0.02640  0.04700  0.00000  0.01090 -0.00010
   Cu02	 0.03140  0.02640  0.04700  0.00000  0.01090 -0.00010
   S003	 0.02510  0.02530  0.04400 -0.00040  0.01270 -0.00030
   S003	 0.02510  0.02530  0.04400 -0.00040  0.01270 -0.00030
   S003	 0.02510  0.02530  0.04400  0.00040  0.01270  0.00030
   S003	 0.02510  0.02530  0.04400  0.00040  0.01270  0.00030
   O004	 0.03900  0.02900  0.05100  0.00500  0.01800  0.00300
   O004	 0.03900  0.02900  0.05100  0.00500  0.01800  0.00300
   O004	 0.03900  0.02900  0.05100 -0.00500  0.01800 -0.00300
   O004	 0.03900  0.02900  0.05100 -0.00500  0.01800 -0.00300
   O005	 0.04200  0.02500  0.05100  0.00400  0.01400  0.00100
   O005	 0.04200  0.02500  0.05100  0.00400  0.01400  0.00100
   O005	 0.04200  0.02500  0.05100 -0.00400  0.01400 -0.00100
   O005	 0.04200  0.02500  0.05100 -0.00400  0.01400 -0.00100
   C006	 0.03900  0.02500  0.05000  0.00000  0.01100 -0.00700
   C006	 0.03900  0.02500  0.05000  0.00000  0.01100 -0.00700
   C006	 0.03900  0.02500  0.05000  0.00000  0.01100  0.00700
   C006	 0.03900  0.02500  0.05000  0.00000  0.01100  0.00700
   H010	 0.00000  0.00000  0.00000  0.00000  0.00000  0.00000
   H010	 0.00000  0.00000  0.00000  0.00000  0.00000  0.00000
   H010	 0.00000  0.00000  0.00000  0.00000  0.00000  0.00000
   H010	 0.00000  0.00000  0.00000  0.00000  0.00000  0.00000
   H011	 0.00000  0.00000  0.00000  0.00000  0.00000  0.00000
   H011	 0.00000  0.00000  0.00000  0.00000  0.00000  0.00000
   H011	 0.00000  0.00000  0.00000  0.00000  0.00000  0.00000
   H011	 0.00000  0.00000  0.00000  0.00000  0.00000  0.00000
   H012	 0.00000  0.00000  0.00000  0.00000  0.00000  0.00000
   H012	 0.00000  0.00000  0.00000  0.00000  0.00000  0.00000
   H012	 0.00000  0.00000  0.00000  0.00000  0.00000  0.00000
   H012	 0.00000  0.00000  0.00000  0.00000  0.00000  0.00000
   C007	 0.03000  0.02400  0.05400  0.00000  0.00400 -0.00200
   C007	 0.03000  0.02400  0.05400  0.00000  0.00400 -0.00200
   C007	 0.03000  0.02400  0.05400  0.00000  0.00400  0.00200
   C007	 0.03000  0.02400  0.05400  0.00000  0.00400  0.00200
   C008	 0.02900  0.02500  0.04900  0.00000  0.00200 -0.00100
   C008	 0.02900  0.02500  0.04900  0.00000  0.00200 -0.00100
   C008	 0.02900  0.02500  0.04900  0.00000  0.00200  0.00100
   C008	 0.02900  0.02500  0.04900  0.00000  0.00200  0.00100
   C009	 0.03200  0.03400  0.05300 -0.00100  0.01100 -0.00300
   C009	 0.03200  0.03400  0.05300 -0.00100  0.01100 -0.00300
   C009	 0.03200  0.03400  0.05300  0.00100  0.01100  0.00300
   C009	 0.03200  0.03400  0.05300  0.00100  0.01100  0.00300
   H009	 0.00000  0.00000  0.00000  0.00000  0.00000  0.00000
   H009	 0.00000  0.00000  0.00000  0.00000  0.00000  0.00000
   H009	 0.00000  0.00000  0.00000  0.00000  0.00000  0.00000
   H009	 0.00000  0.00000  0.00000  0.00000  0.00000  0.00000
   C010	 0.03600  0.03000  0.04900  0.00200  0.01900 -0.00200
   C010	 0.03600  0.03000  0.04900  0.00200  0.01900 -0.00200
   C010	 0.03600  0.03000  0.04900 -0.00200  0.01900  0.00200
   C010	 0.03600  0.03000  0.04900 -0.00200  0.01900  0.00200
   H013	 0.00000  0.00000  0.00000  0.00000  0.00000  0.00000
   H013	 0.00000  0.00000  0.00000  0.00000  0.00000  0.00000
   H013	 0.00000  0.00000  0.00000  0.00000  0.00000  0.00000
   H013	 0.00000  0.00000  0.00000  0.00000  0.00000  0.00000
